Version 4
SHEET 1 1856 824
WIRE 864 -528 800 -528
WIRE 1104 -528 1040 -528
WIRE 800 -512 800 -528
WIRE 1104 -512 1104 -528
WIRE -192 -496 -192 -528
WIRE 864 -496 864 -528
WIRE 1040 -496 1040 -528
WIRE -192 -384 -192 -416
WIRE -112 -384 -192 -384
WIRE 864 -384 864 -416
WIRE 1040 -384 1040 -416
WIRE -112 -368 -112 -384
WIRE -192 -352 -192 -384
WIRE 768 -352 720 -352
WIRE 720 -336 720 -352
WIRE 1152 -320 1120 -320
WIRE 1152 -272 1152 -320
WIRE 1152 -272 1120 -272
WIRE 1248 -272 1152 -272
WIRE 1360 -272 1248 -272
WIRE 1632 -272 1360 -272
WIRE 1248 -256 1248 -272
WIRE 1632 -256 1632 -272
WIRE -192 -240 -192 -272
WIRE 768 -224 736 -224
WIRE 1248 -176 1248 -192
WIRE 1152 -144 1120 -144
WIRE 1632 -144 1632 -176
WIRE 688 -96 624 -96
WIRE 736 -96 736 -224
WIRE 736 -96 688 -96
WIRE 768 -96 736 -96
WIRE 688 -80 688 -96
WIRE 240 -64 128 -64
WIRE 240 -48 240 -64
WIRE 128 0 128 -64
WIRE 128 0 96 0
WIRE 688 0 688 -16
WIRE 32 16 -16 16
WIRE 464 16 384 16
WIRE 128 32 96 32
WIRE 144 32 128 32
WIRE 288 32 224 32
WIRE 320 32 288 32
WIRE 416 48 384 48
WIRE 1104 112 1040 112
WIRE 288 128 288 32
WIRE 416 128 416 48
WIRE 416 128 288 128
WIRE 1104 128 1104 112
WIRE 464 144 464 16
WIRE 864 144 464 144
WIRE 1040 144 1040 112
WIRE -16 160 -16 16
WIRE 16 160 -16 160
WIRE 128 160 128 32
WIRE 128 160 96 160
WIRE -208 240 -208 208
WIRE 464 240 464 144
WIRE 864 256 864 144
WIRE 1040 256 1040 224
WIRE 768 288 720 288
WIRE -16 304 -16 160
WIRE 176 304 -16 304
WIRE 720 304 720 288
WIRE 288 320 240 320
WIRE 416 320 368 320
WIRE 1152 320 1120 320
WIRE -208 336 -208 320
WIRE 176 336 -208 336
WIRE -208 352 -208 336
WIRE 464 368 464 336
WIRE 1152 368 1152 320
WIRE 1152 368 1120 368
WIRE 1248 368 1152 368
WIRE 1360 368 1248 368
WIRE 1632 368 1360 368
WIRE 1248 384 1248 368
WIRE 1632 384 1632 368
WIRE 768 416 736 416
WIRE -208 448 -208 432
WIRE 464 464 464 448
WIRE 1248 464 1248 448
WIRE 1152 496 1120 496
WIRE 1632 496 1632 464
WIRE 688 544 624 544
WIRE 736 544 736 416
WIRE 736 544 688 544
WIRE 768 544 736 544
WIRE 688 560 688 544
WIRE 688 640 688 624
FLAG -112 -368 0
FLAG -192 -528 VCC
FLAG -192 -240 VEE
FLAG 720 304 0
FLAG 1360 368 VOUT
FLAG 1248 464 0
FLAG 688 640 0
FLAG 624 544 VEE
FLAG 1152 496 VEE
FLAG 1104 128 0
FLAG -208 448 0
FLAG 464 464 0
FLAG -208 208 VCC
FLAG 208 352 VEE
FLAG 208 288 VCC
FLAG 720 -336 0
FLAG 1360 -272 VOUT_REF
FLAG 1248 -176 0
FLAG 688 0 0
FLAG 624 -96 VEE
FLAG 1152 -144 VEE
FLAG 1104 -512 0
FLAG 800 -512 0
FLAG 64 -16 VEE
FLAG 64 48 VCC
FLAG 240 -48 0
FLAG 352 0 VEE
FLAG 352 64 VCC
FLAG 1632 496 0
FLAG 1632 -144 0
SYMBOL PowerProducts\\LT3094 944 368 R0
SYMATTR InstName U1
SYMBOL f -208 240 R0
SYMATTR InstName FSOR
SYMATTR Value -1
SYMATTR SpiceModel VSNS
SYMBOL voltage -192 -512 R0
SYMATTR InstName V1
SYMATTR Value 5
SYMBOL voltage -192 -368 R0
SYMATTR InstName V2
SYMATTR Value 5
SYMBOL cap 1232 384 R0
SYMATTR InstName C1
SYMATTR Value 22µ
SYMBOL cap 672 560 R0
SYMATTR InstName C2
SYMATTR Value 22µ
SYMBOL res 1024 128 R0
SYMATTR InstName RLIM
SYMATTR Value 49.9K
SYMBOL res -224 336 R0
SYMATTR InstName RWB
SYMATTR Value 23K
SYMBOL Opamps\\OP07 208 256 R0
SYMATTR InstName U2
SYMBOL voltage 464 352 R0
SYMATTR InstName VSNS
SYMATTR Value 0
SYMBOL PowerProducts\\LT3094 944 -272 R0
SYMATTR InstName U3
SYMBOL cap 1232 -256 R0
SYMATTR InstName C3
SYMATTR Value 22µ
SYMBOL cap 672 -80 R0
SYMATTR InstName C4
SYMATTR Value 22µ
SYMBOL res 1024 -512 R0
SYMATTR InstName RLIM_REF
SYMATTR Value 49.9K
SYMBOL res 848 -512 R0
SYMATTR InstName RSET_REF
SYMATTR Value 23K
SYMBOL pmos 416 240 R0
SYMATTR InstName M3
SYMATTR Value FDS4435A
SYMBOL Opamps\\OP07 64 80 R180
SYMATTR InstName U4
SYMBOL res 240 16 R90
WINDOW 0 0 56 VBottom 2
WINDOW 3 32 56 VTop 2
SYMATTR InstName R1
SYMATTR Value 10K
SYMBOL res 112 144 R90
WINDOW 0 0 56 VBottom 2
WINDOW 3 32 56 VTop 2
SYMATTR InstName R2
SYMATTR Value 10K
SYMBOL Opamps\\OP07 352 96 R180
SYMATTR InstName U5
SYMBOL res 384 304 R90
WINDOW 0 0 56 VBottom 2
WINDOW 3 32 56 VTop 2
SYMATTR InstName R4
SYMATTR Value 10K
SYMBOL res 1616 -272 R0
SYMATTR InstName RLOAD_REF
SYMATTR Value 46
SYMBOL res 1616 368 R0
SYMATTR InstName RLOAD
SYMATTR Value 46
TEXT 368 576 Left 2 !.tran 10m
TEXT 1712 -192 Left 2 ;50mA load
TEXT 1728 440 Left 2 ;50mA load
TEXT 1136 184 Left 2 ;75mA current limit
TEXT 1168 -448 Left 2 ;75mA current limit
TEXT 224 144 Left 2 ;Set voltage buffer
TEXT -32 -88 Left 2 ;Set voltage inverter
TEXT 488 248 Left 2 ;Mirrored resistor
TEXT -136 408 Left 2 ;Referance resistor
TEXT -472 240 Left 2 ;Current mirror source
TEXT 216 448 Left 2 ;Current mirror sense
TEXT 144 232 Left 2 ;Error amplifier
TEXT 328 696 Left 2 ;This circuit mirrors the referance resistance while inverting the set voltage sign.\nThis allows the use of digital potentiometers that do not have indipendent input and out supplies.\n \nThe current design has an output set error of +/- 1mV.\nThe least output set error of 10uV is acheved when the main supply rails are balanced.
